# generated using pymatgen
data_Mo64S127
_symmetry_space_group_name_H-M   'P 1'
_cell_length_a   25.52252560
_cell_length_b   25.52252560
_cell_length_c   14.87900400
_cell_angle_alpha   90.00000000
_cell_angle_beta   90.00000000
_cell_angle_gamma   120.00000000
_symmetry_Int_Tables_number   1
_chemical_formula_structural   Mo64S127
_chemical_formula_sum   'Mo64 S127'
_cell_volume   8393.66802181
_cell_formula_units_Z   1
loop_
 _symmetry_equiv_pos_site_id
 _symmetry_equiv_pos_as_xyz
  1  'x, y, z'
loop_
 _atom_site_type_symbol
 _atom_site_label
 _atom_site_symmetry_multiplicity
 _atom_site_fract_x
 _atom_site_fract_y
 _atom_site_fract_z
 _atom_site_occupancy
  Mo  Mo0  1  0.04166667  0.08333333  0.25000000  1.0
  Mo  Mo1  1  0.04166667  0.20833333  0.25000000  1.0
  Mo  Mo2  1  0.04166667  0.33333333  0.25000000  1.0
  Mo  Mo3  1  0.04166667  0.45833333  0.25000000  1.0
  Mo  Mo4  1  0.04166667  0.58333333  0.25000000  1.0
  Mo  Mo5  1  0.04166667  0.70833333  0.25000000  1.0
  Mo  Mo6  1  0.04166667  0.83333333  0.25000000  1.0
  Mo  Mo7  1  0.04166667  0.95833333  0.25000000  1.0
  Mo  Mo8  1  0.16666667  0.08333333  0.25000000  1.0
  Mo  Mo9  1  0.16666667  0.20833333  0.25000000  1.0
  Mo  Mo10  1  0.16666667  0.33333333  0.25000000  1.0
  Mo  Mo11  1  0.16666667  0.45833333  0.25000000  1.0
  Mo  Mo12  1  0.16666667  0.58333333  0.25000000  1.0
  Mo  Mo13  1  0.16666667  0.70833333  0.25000000  1.0
  Mo  Mo14  1  0.16666667  0.83333333  0.25000000  1.0
  Mo  Mo15  1  0.16666667  0.95833333  0.25000000  1.0
  Mo  Mo16  1  0.29166667  0.08333333  0.25000000  1.0
  Mo  Mo17  1  0.29166667  0.20833333  0.25000000  1.0
  Mo  Mo18  1  0.29166667  0.33333333  0.25000000  1.0
  Mo  Mo19  1  0.29166667  0.45833333  0.25000000  1.0
  Mo  Mo20  1  0.29166667  0.58333333  0.25000000  1.0
  Mo  Mo21  1  0.29166667  0.70833333  0.25000000  1.0
  Mo  Mo22  1  0.29166667  0.83333333  0.25000000  1.0
  Mo  Mo23  1  0.29166667  0.95833333  0.25000000  1.0
  Mo  Mo24  1  0.41666667  0.08333333  0.25000000  1.0
  Mo  Mo25  1  0.41666667  0.20833333  0.25000000  1.0
  Mo  Mo26  1  0.41666667  0.33333333  0.25000000  1.0
  Mo  Mo27  1  0.41666667  0.45833333  0.25000000  1.0
  Mo  Mo28  1  0.41666667  0.58333333  0.25000000  1.0
  Mo  Mo29  1  0.41666667  0.70833333  0.25000000  1.0
  Mo  Mo30  1  0.41666667  0.83333333  0.25000000  1.0
  Mo  Mo31  1  0.41666667  0.95833333  0.25000000  1.0
  Mo  Mo32  1  0.54166667  0.08333333  0.25000000  1.0
  Mo  Mo33  1  0.54166667  0.20833333  0.25000000  1.0
  Mo  Mo34  1  0.54166667  0.33333333  0.25000000  1.0
  Mo  Mo35  1  0.54166667  0.45833333  0.25000000  1.0
  Mo  Mo36  1  0.54166667  0.58333333  0.25000000  1.0
  Mo  Mo37  1  0.54166667  0.70833333  0.25000000  1.0
  Mo  Mo38  1  0.54166667  0.83333333  0.25000000  1.0
  Mo  Mo39  1  0.54166667  0.95833333  0.25000000  1.0
  Mo  Mo40  1  0.66666667  0.08333333  0.25000000  1.0
  Mo  Mo41  1  0.66666667  0.20833333  0.25000000  1.0
  Mo  Mo42  1  0.66666667  0.33333333  0.25000000  1.0
  Mo  Mo43  1  0.66666667  0.45833333  0.25000000  1.0
  Mo  Mo44  1  0.66666667  0.58333333  0.25000000  1.0
  Mo  Mo45  1  0.66666667  0.70833333  0.25000000  1.0
  Mo  Mo46  1  0.66666667  0.83333333  0.25000000  1.0
  Mo  Mo47  1  0.66666667  0.95833333  0.25000000  1.0
  Mo  Mo48  1  0.79166667  0.08333333  0.25000000  1.0
  Mo  Mo49  1  0.79166667  0.20833333  0.25000000  1.0
  Mo  Mo50  1  0.79166667  0.33333333  0.25000000  1.0
  Mo  Mo51  1  0.79166667  0.45833333  0.25000000  1.0
  Mo  Mo52  1  0.79166667  0.58333333  0.25000000  1.0
  Mo  Mo53  1  0.79166667  0.70833333  0.25000000  1.0
  Mo  Mo54  1  0.79166667  0.83333333  0.25000000  1.0
  Mo  Mo55  1  0.79166667  0.95833333  0.25000000  1.0
  Mo  Mo56  1  0.91666667  0.08333333  0.25000000  1.0
  Mo  Mo57  1  0.91666667  0.20833333  0.25000000  1.0
  Mo  Mo58  1  0.91666667  0.33333333  0.25000000  1.0
  Mo  Mo59  1  0.91666667  0.45833333  0.25000000  1.0
  Mo  Mo60  1  0.91666667  0.58333333  0.25000000  1.0
  Mo  Mo61  1  0.91666667  0.70833333  0.25000000  1.0
  Mo  Mo62  1  0.91666667  0.83333333  0.25000000  1.0
  Mo  Mo63  1  0.91666667  0.95833333  0.25000000  1.0
  S  S64  1  0.08333333  0.04166667  0.14482600  1.0
  S  S65  1  0.08333333  0.16666667  0.14482600  1.0
  S  S66  1  0.08333333  0.29166667  0.14482600  1.0
  S  S67  1  0.08333333  0.41666667  0.14482600  1.0
  S  S68  1  0.08333333  0.54166667  0.14482600  1.0
  S  S69  1  0.08333333  0.66666667  0.14482600  1.0
  S  S70  1  0.08333333  0.79166667  0.14482600  1.0
  S  S71  1  0.08333333  0.91666667  0.14482600  1.0
  S  S72  1  0.20833333  0.04166667  0.14482600  1.0
  S  S73  1  0.20833333  0.16666667  0.14482600  1.0
  S  S74  1  0.20833333  0.29166667  0.14482600  1.0
  S  S75  1  0.20833333  0.41666667  0.14482600  1.0
  S  S76  1  0.20833333  0.54166667  0.14482600  1.0
  S  S77  1  0.20833333  0.66666667  0.14482600  1.0
  S  S78  1  0.20833333  0.79166667  0.14482600  1.0
  S  S79  1  0.20833333  0.91666667  0.14482600  1.0
  S  S80  1  0.33333333  0.04166667  0.14482600  1.0
  S  S81  1  0.33333333  0.16666667  0.14482600  1.0
  S  S82  1  0.33333333  0.29166667  0.14482600  1.0
  S  S83  1  0.33333333  0.41666667  0.14482600  1.0
  S  S84  1  0.33333333  0.54166667  0.14482600  1.0
  S  S85  1  0.33333333  0.66666667  0.14482600  1.0
  S  S86  1  0.33333333  0.79166667  0.14482600  1.0
  S  S87  1  0.33333333  0.91666667  0.14482600  1.0
  S  S88  1  0.45833333  0.04166667  0.14482600  1.0
  S  S89  1  0.45833333  0.16666667  0.14482600  1.0
  S  S90  1  0.45833333  0.29166667  0.14482600  1.0
  S  S91  1  0.45833333  0.41666667  0.14482600  1.0
  S  S92  1  0.45833333  0.54166667  0.14482600  1.0
  S  S93  1  0.45833333  0.66666667  0.14482600  1.0
  S  S94  1  0.45833333  0.79166667  0.14482600  1.0
  S  S95  1  0.45833333  0.91666667  0.14482600  1.0
  S  S96  1  0.58333333  0.04166667  0.14482600  1.0
  S  S97  1  0.58333333  0.16666667  0.14482600  1.0
  S  S98  1  0.58333333  0.29166667  0.14482600  1.0
  S  S99  1  0.58333333  0.41666667  0.14482600  1.0
  S  S100  1  0.58333333  0.54166667  0.14482600  1.0
  S  S101  1  0.58333333  0.66666667  0.14482600  1.0
  S  S102  1  0.58333333  0.79166667  0.14482600  1.0
  S  S103  1  0.58333333  0.91666667  0.14482600  1.0
  S  S104  1  0.70833333  0.04166667  0.14482600  1.0
  S  S105  1  0.70833333  0.16666667  0.14482600  1.0
  S  S106  1  0.70833333  0.29166667  0.14482600  1.0
  S  S107  1  0.70833333  0.41666667  0.14482600  1.0
  S  S108  1  0.70833333  0.54166667  0.14482600  1.0
  S  S109  1  0.70833333  0.66666667  0.14482600  1.0
  S  S110  1  0.70833333  0.79166667  0.14482600  1.0
  S  S111  1  0.70833333  0.91666667  0.14482600  1.0
  S  S112  1  0.83333333  0.04166667  0.14482600  1.0
  S  S113  1  0.83333333  0.16666667  0.14482600  1.0
  S  S114  1  0.83333333  0.29166667  0.14482600  1.0
  S  S115  1  0.83333333  0.41666667  0.14482600  1.0
  S  S116  1  0.83333333  0.54166667  0.14482600  1.0
  S  S117  1  0.83333333  0.66666667  0.14482600  1.0
  S  S118  1  0.83333333  0.79166667  0.14482600  1.0
  S  S119  1  0.83333333  0.91666667  0.14482600  1.0
  S  S120  1  0.95833333  0.04166667  0.14482600  1.0
  S  S121  1  0.95833333  0.16666667  0.14482600  1.0
  S  S122  1  0.95833333  0.29166667  0.14482600  1.0
  S  S123  1  0.95833333  0.41666667  0.14482600  1.0
  S  S124  1  0.95833333  0.54166667  0.14482600  1.0
  S  S125  1  0.95833333  0.66666667  0.14482600  1.0
  S  S126  1  0.95833333  0.79166667  0.14482600  1.0
  S  S127  1  0.95833333  0.91666667  0.14482600  1.0
  S  S128  1  0.08333333  0.04166667  0.35517400  1.0
  S  S129  1  0.08333333  0.16666667  0.35517400  1.0
  S  S130  1  0.08333333  0.29166667  0.35517400  1.0
  S  S131  1  0.08333333  0.41666667  0.35517400  1.0
  S  S132  1  0.08333333  0.54166667  0.35517400  1.0
  S  S133  1  0.08333333  0.66666667  0.35517400  1.0
  S  S134  1  0.08333333  0.91666667  0.35517400  1.0
  S  S135  1  0.20833333  0.04166667  0.35517400  1.0
  S  S136  1  0.20833333  0.16666667  0.35517400  1.0
  S  S137  1  0.20833333  0.29166667  0.35517400  1.0
  S  S138  1  0.20833333  0.41666667  0.35517400  1.0
  S  S139  1  0.20833333  0.54166667  0.35517400  1.0
  S  S140  1  0.20833333  0.66666667  0.35517400  1.0
  S  S141  1  0.20833333  0.79166667  0.35517400  1.0
  S  S142  1  0.20833333  0.91666667  0.35517400  1.0
  S  S143  1  0.33333333  0.04166667  0.35517400  1.0
  S  S144  1  0.33333333  0.16666667  0.35517400  1.0
  S  S145  1  0.33333333  0.29166667  0.35517400  1.0
  S  S146  1  0.33333333  0.41666667  0.35517400  1.0
  S  S147  1  0.33333333  0.54166667  0.35517400  1.0
  S  S148  1  0.33333333  0.66666667  0.35517400  1.0
  S  S149  1  0.33333333  0.79166667  0.35517400  1.0
  S  S150  1  0.33333333  0.91666667  0.35517400  1.0
  S  S151  1  0.45833333  0.04166667  0.35517400  1.0
  S  S152  1  0.45833333  0.16666667  0.35517400  1.0
  S  S153  1  0.45833333  0.29166667  0.35517400  1.0
  S  S154  1  0.45833333  0.41666667  0.35517400  1.0
  S  S155  1  0.45833333  0.54166667  0.35517400  1.0
  S  S156  1  0.45833333  0.66666667  0.35517400  1.0
  S  S157  1  0.45833333  0.79166667  0.35517400  1.0
  S  S158  1  0.45833333  0.91666667  0.35517400  1.0
  S  S159  1  0.58333333  0.04166667  0.35517400  1.0
  S  S160  1  0.58333333  0.16666667  0.35517400  1.0
  S  S161  1  0.58333333  0.29166667  0.35517400  1.0
  S  S162  1  0.58333333  0.41666667  0.35517400  1.0
  S  S163  1  0.58333333  0.54166667  0.35517400  1.0
  S  S164  1  0.58333333  0.66666667  0.35517400  1.0
  S  S165  1  0.58333333  0.79166667  0.35517400  1.0
  S  S166  1  0.58333333  0.91666667  0.35517400  1.0
  S  S167  1  0.70833333  0.04166667  0.35517400  1.0
  S  S168  1  0.70833333  0.16666667  0.35517400  1.0
  S  S169  1  0.70833333  0.29166667  0.35517400  1.0
  S  S170  1  0.70833333  0.41666667  0.35517400  1.0
  S  S171  1  0.70833333  0.54166667  0.35517400  1.0
  S  S172  1  0.70833333  0.66666667  0.35517400  1.0
  S  S173  1  0.70833333  0.79166667  0.35517400  1.0
  S  S174  1  0.70833333  0.91666667  0.35517400  1.0
  S  S175  1  0.83333333  0.04166667  0.35517400  1.0
  S  S176  1  0.83333333  0.16666667  0.35517400  1.0
  S  S177  1  0.83333333  0.29166667  0.35517400  1.0
  S  S178  1  0.83333333  0.41666667  0.35517400  1.0
  S  S179  1  0.83333333  0.54166667  0.35517400  1.0
  S  S180  1  0.83333333  0.66666667  0.35517400  1.0
  S  S181  1  0.83333333  0.79166667  0.35517400  1.0
  S  S182  1  0.83333333  0.91666667  0.35517400  1.0
  S  S183  1  0.95833333  0.04166667  0.35517400  1.0
  S  S184  1  0.95833333  0.16666667  0.35517400  1.0
  S  S185  1  0.95833333  0.29166667  0.35517400  1.0
  S  S186  1  0.95833333  0.41666667  0.35517400  1.0
  S  S187  1  0.95833333  0.54166667  0.35517400  1.0
  S  S188  1  0.95833333  0.66666667  0.35517400  1.0
  S  S189  1  0.95833333  0.79166667  0.35517400  1.0
  S  S190  1  0.95833333  0.91666667  0.35517400  1.0
