# generated using pymatgen
data_MoS2
_symmetry_space_group_name_H-M   'P 1'
_cell_length_a   9.59920000
_cell_length_b   9.59920000
_cell_length_c   9.59920000
_cell_angle_alpha   90.00000000
_cell_angle_beta   90.00000000
_cell_angle_gamma   90.00000000
_symmetry_Int_Tables_number   1
_chemical_formula_structural   MoS2
_chemical_formula_sum   'Mo16 S32'
_cell_volume   884.51483443
_cell_formula_units_Z   16
loop_
 _symmetry_equiv_pos_site_id
 _symmetry_equiv_pos_as_xyz
  1  'x, y, z'
loop_
 _atom_type_symbol
 _atom_type_oxidation_number
  Mo4+  4.0
  S2-  -2.0
loop_
 _atom_site_type_symbol
 _atom_site_label
 _atom_site_symmetry_multiplicity
 _atom_site_fract_x
 _atom_site_fract_y
 _atom_site_fract_z
 _atom_site_occupancy
  Mo4+  Mo0  1  0.64115225  0.14115225  0.64115225  1
  Mo4+  Mo1  1  0.85884775  0.35884775  0.64115225  1
  Mo4+  Mo2  1  0.85884775  0.14115225  0.85884775  1
  Mo4+  Mo3  1  0.64115225  0.35884775  0.85884775  1
  Mo4+  Mo4  1  0.64115225  0.64115225  0.14115225  1
  Mo4+  Mo5  1  0.85884775  0.85884775  0.14115225  1
  Mo4+  Mo6  1  0.85884775  0.64115225  0.35884775  1
  Mo4+  Mo7  1  0.64115225  0.85884775  0.35884775  1
  Mo4+  Mo8  1  0.14115225  0.14115225  0.14115225  1
  Mo4+  Mo9  1  0.35884775  0.35884775  0.14115225  1
  Mo4+  Mo10  1  0.35884775  0.14115225  0.35884775  1
  Mo4+  Mo11  1  0.14115225  0.35884775  0.35884775  1
  Mo4+  Mo12  1  0.14115225  0.64115225  0.64115225  1
  Mo4+  Mo13  1  0.35884775  0.85884775  0.64115225  1
  Mo4+  Mo14  1  0.35884775  0.64115225  0.85884775  1
  Mo4+  Mo15  1  0.14115225  0.85884775  0.85884775  1
  S2-  S16  1  0.88509125  0.11490875  0.61490875  1
  S2-  S17  1  0.11490875  0.11490875  0.38509125  1
  S2-  S18  1  0.61490875  0.38509125  0.61490875  1
  S2-  S19  1  0.61847775  0.38152225  0.11847775  1
  S2-  S20  1  0.88152225  0.11847775  0.11847775  1
  S2-  S21  1  0.88152225  0.38152225  0.38152225  1
  S2-  S22  1  0.61847775  0.11847775  0.38152225  1
  S2-  S23  1  0.38509125  0.38509125  0.38509125  1
  S2-  S24  1  0.88509125  0.61490875  0.11490875  1
  S2-  S25  1  0.11490875  0.61490875  0.88509125  1
  S2-  S26  1  0.61490875  0.88509125  0.11490875  1
  S2-  S27  1  0.61847775  0.88152225  0.61847775  1
  S2-  S28  1  0.88152225  0.61847775  0.61847775  1
  S2-  S29  1  0.88152225  0.88152225  0.88152225  1
  S2-  S30  1  0.61847775  0.61847775  0.88152225  1
  S2-  S31  1  0.38509125  0.88509125  0.88509125  1
  S2-  S32  1  0.38509125  0.11490875  0.11490875  1
  S2-  S33  1  0.61490875  0.11490875  0.88509125  1
  S2-  S34  1  0.11490875  0.38509125  0.11490875  1
  S2-  S35  1  0.11847775  0.38152225  0.61847775  1
  S2-  S36  1  0.38152225  0.11847775  0.61847775  1
  S2-  S37  1  0.38152225  0.38152225  0.88152225  1
  S2-  S38  1  0.11847775  0.11847775  0.88152225  1
  S2-  S39  1  0.88509125  0.38509125  0.88509125  1
  S2-  S40  1  0.38509125  0.61490875  0.61490875  1
  S2-  S41  1  0.61490875  0.61490875  0.38509125  1
  S2-  S42  1  0.11490875  0.88509125  0.61490875  1
  S2-  S43  1  0.11847775  0.88152225  0.11847775  1
  S2-  S44  1  0.38152225  0.61847775  0.11847775  1
  S2-  S45  1  0.38152225  0.88152225  0.38152225  1
  S2-  S46  1  0.11847775  0.61847775  0.38152225  1
  S2-  S47  1  0.88509125  0.88509125  0.38509125  1
